**
** Library generated Tuesday, December 17, 2019 18:45:50
** The IBIS file was F:\Users\Nikhil\Downloads\IBIS2SPICE\82375sb.ibs
**
** Failed to open copyright.txt. Error: 2.
** Warning: Model PCEBB12211A0S2AZZZZC changed to PCEBB122
** Warning: Model PCEBB16160A0S2AZZRUC changed to PCEBB161
** Warning: Model PCEBI00000A0S2AZZNMC changed to PCEBI000
** Warning: Model PCEBT08080AXXXXZZKMB changed to PCEBT080
** Warning: Model PCEBT08081AXXXXZZKMB changed to PCEBT081
** Warning: Model PCEBB08080A0S2AZZKMB changed to PCEBB080
** Warning: Model PCEBI00000A1K3KZZNMC changed to PCEBI001
** Warning: Model PCEBO08081AXXXXZZKMB changed to PCEBO080
** Warning: Model PCEBI00000A0S2AZZVTC changed to PCEBI002
**********
*SRC=PCEBB122_Pin_3_B;PCEBB122_Pin_3_B;IBIS_BUFFER;I/O;best
*SYM=IBISO
.SUBCKT PCEBB122_Pin_3_B 100 4 300 400 500
*Connections    Input Output VCC VEE Enable
** Referenced by:
** LA31, LA30, LA29, LA28, LA27
** LA26, LA25, LA24, LA16, LA15
** LA14, LA13, LA12, LA11, LA10
** LA9, LA8, LA7, LA6, LA5
** LA4, LA23, LA3, LA22, LA2
** LA21, LA20, LA19, LA18, LA17
** AD31, AD30, AD29, AD28, AD27
** AD26, AD25, AD24, C/BE3#, AD23
** AD22, AD21, AD20, AD19, AD18
** AD17, AD16, C/BE2#, FRAME#, IRDY#
** TRDY#, DEVSEL#, STOP#, PCILOCK#, PERR#
** PAR, C/BE1#, AD15, AD14, AD13
** AD12, AD11, AD10, AD9, C/BE0#
** AD8, AD7, AD6, AD5, AD4
** AD3, AD2, AD1, AD0, LOCK#
** START#, EXRDY, SLBURST#, MSBURST#, M/IO#
** W/R#, BE3#, BE2#, BE1#, BE0#

*Model Version; best
*DEFINE {RTF}=  30.079k  ;2.84V/854.23ps
*DEFINE {RTR}=  23.849k  ;2.27V/541.37ps
* Input Control
B1 820 0 V=V(100) & V(500)
B2 830 0 V= V(500) & ~V(100)
* Up and Down Ramps
B3 300 850 I= V(830) > 1.2   ? 0 : V(300,850) / {RTR}
RB3 300 850 100MEG
B4 840 400 I= V(820) > 1.2 ? 0 : V(840,400) / {RTF}
RB4 840 400 100MEG
C1 300 850 .01P
C2 840 400 .01P
S1 220 850 0 820 SMOD
S2 840 220 0 830 SMOD
.MODEL SMOD SW RON=.1M ROFF=1E15 VT=-1.2 VH=.1
G1 8 400 2 8 1
R1 6 400 1
G2 300 8 8 3 1
R2 300 6 1
* Pull-up/Pull-down structures; best
XPULL_DOWN 2 400 8 840 PULL_DOWN
XPULL_UP 3 300 850 8 PULL_UP
* Diode Clamps
XPOWER_CLAMP 6 300 300 6 POWER_CLAMP
XGND_CLAMP 6 400 6 400 GND_CLAMP
* Package Parasitics: best
ROSNB 5 1 100
ROPKG 1 4 42.0m
COPKG 4 400 1.61pF
CCOMP 5 400 1.24pF
LOPKG 5 1 9.50nH
* Voltage Sources for measuring currents
V5 6 5 
V6 8 6 
V7 220 8 
.ENDS
.SUBCKT GND_CLAMP 3    4   1   2
* Connections     Out+ Out In+ In
BGND_CLAMP 3 4 I=
+ (V(1,2) <   -5.000 ) ?    1.000n * V(1,2) +  -84.800  : 
+ (V(1,2) <   -4.800 ) ?   20.900  * V(1,2) +   19.700  : 	;   -4.800   -80.620 
+ (V(1,2) <   -4.600 ) ?   20.850  * V(1,2) +   19.460  : 	;   -4.600   -76.450 
+ (V(1,2) <   -4.400 ) ?   20.900  * V(1,2) +   19.690  : 	;   -4.400   -72.270 
+ (V(1,2) <   -4.200 ) ?   20.850  * V(1,2) +   19.470  : 	;   -4.200   -68.100 
+ (V(1,2) <   -4.000 ) ?   20.850  * V(1,2) +   19.470  : 	;   -4.000   -63.930 
+ (V(1,2) <   -3.800 ) ?   20.800  * V(1,2) +   19.270  : 	;   -3.800   -59.770 
+ (V(1,2) <   -3.600 ) ?   20.850  * V(1,2) +   19.460  : 	;   -3.600   -55.600 
+ (V(1,2) <   -3.400 ) ?   20.800  * V(1,2) +   19.280  : 	;   -3.400   -51.440 
+ (V(1,2) <   -3.200 ) ?   20.800  * V(1,2) +   19.280  : 	;   -3.200   -47.280 
+ (V(1,2) <   -3.000 ) ?   20.750  * V(1,2) +   19.120  : 	;   -3.000   -43.130 
+ (V(1,2) <   -2.800 ) ?   20.750  * V(1,2) +   19.120  : 	;   -2.800   -38.980 
+ (V(1,2) <   -2.600 ) ?   20.700  * V(1,2) +   18.980  : 	;   -2.600   -34.840 
+ (V(1,2) <   -2.400 ) ?   20.700  * V(1,2) +   18.980  : 	;   -2.400   -30.700 
+ (V(1,2) <   -2.200 ) ?   20.650  * V(1,2) +   18.860  : 	;   -2.200   -26.570 
+ (V(1,2) <   -2.000 ) ?   20.600  * V(1,2) +   18.750  : 	;   -2.000   -22.450 
+ (V(1,2) <   -1.950 ) ?   20.400  * V(1,2) +   18.350  : 	;   -1.950   -21.430 
+ (V(1,2) <   -1.900 ) ?   20.600  * V(1,2) +   18.740  : 	;   -1.900   -20.400 
+ (V(1,2) <   -1.850 ) ?   20.400  * V(1,2) +   18.360  : 	;   -1.850   -19.380 
+ (V(1,2) <   -1.800 ) ?   20.600  * V(1,2) +   18.730  : 	;   -1.800   -18.350 
+ (V(1,2) <   -1.750 ) ?   20.400  * V(1,2) +   18.370  : 	;   -1.750   -17.330 
+ (V(1,2) <   -1.700 ) ?   20.400  * V(1,2) +   18.370  : 	;   -1.700   -16.310 
+ (V(1,2) <   -1.650 ) ?   20.400  * V(1,2) +   18.370  : 	;   -1.650   -15.290 
+ (V(1,2) <   -1.600 ) ?   20.200  * V(1,2) +   18.040  : 	;   -1.600   -14.280 
+ (V(1,2) <   -1.550 ) ?   20.400  * V(1,2) +   18.360  : 	;   -1.550   -13.260 
+ (V(1,2) <   -1.500 ) ?   20.200  * V(1,2) +   18.050  : 	;   -1.500   -12.250 
+ (V(1,2) <   -1.450 ) ?   20.000  * V(1,2) +   17.750  : 	;   -1.450   -11.250 
+ (V(1,2) <   -1.400 ) ?   20.200  * V(1,2) +   18.040  : 	;   -1.400   -10.240 
+ (V(1,2) <   -1.350 ) ?   20.000  * V(1,2) +   17.760  : 	;   -1.350    -9.240 
+ (V(1,2) <   -1.300 ) ?   19.800  * V(1,2) +   17.490  : 	;   -1.300    -8.250 
+ (V(1,2) <   -1.250 ) ?   19.800  * V(1,2) +   17.490  : 	;   -1.250    -7.260 
+ (V(1,2) <   -1.200 ) ?   19.600  * V(1,2) +   17.240  : 	;   -1.200    -6.280 
+ (V(1,2) <   -1.150 ) ?   19.200  * V(1,2) +   16.760  : 	;   -1.150    -5.320 
+ (V(1,2) <   -1.100 ) ?   19.200  * V(1,2) +   16.760  : 	;   -1.100    -4.360 
+ (V(1,2) <   -1.050 ) ?   18.200  * V(1,2) +   15.660  : 	;   -1.050    -3.450 
+ (V(1,2) <   -1.000 ) ?   18.400  * V(1,2) +   15.870  : 	;   -1.000    -2.530 
+ (V(1,2) < -950.000m) ?   16.000  * V(1,2) +   13.470  : 	; -950.000m   -1.730 
+ (V(1,2) < -900.000m) ?   16.050  * V(1,2) +   13.518  : 	; -900.000m -927.490m
+ (V(1,2) < -850.000m) ?    8.530  * V(1,2) +    6.750  : 	; -850.000m -500.980m
+ (V(1,2) < -800.000m) ?    8.530  * V(1,2) +    6.750  : 	; -800.000m  -74.470m
+ (V(1,2) < -750.000m) ?  732.400m * V(1,2) +  511.450m : 	; -750.000m  -37.850m
+ (V(1,2) < -700.000m) ?  732.200m * V(1,2) +  511.300m : 	; -700.000m   -1.240m
+ (V(1,2) < -650.000m) ?   12.207m * V(1,2) +    7.305m : 	; -650.000m -629.670u
+ (V(1,2) < -600.000m) ?   12.225m * V(1,2) +    7.316m : 	; -600.000m  -18.430u
+ (V(1,2) < -550.000m) ?  181.200u * V(1,2) +   90.290u : 	; -550.000m   -9.370u
+ (V(1,2) < -500.000m) ?  181.122u * V(1,2) +   90.247u : 	; -500.000m -313.910n
+ (V(1,2) < -450.000m) ?    3.061u * V(1,2) +    1.217u : 	; -450.000m -160.850n
+ (V(1,2) < -400.000m) ?    3.061u * V(1,2) +    1.217u : 	; -400.000m   -7.800n
+ (V(1,2) < -350.000m) ?   76.000n * V(1,2) +   22.600n : 	; -350.000m   -4.000n
+ (V(1,2) < -300.000m) ?   75.940n * V(1,2) +   22.579n : 	; -300.000m -203.000p
+ (V(1,2) < -250.000m) ?    2.725n * V(1,2) +  614.380p : 	; -250.000m  -66.770p
+ (V(1,2) < -200.000m) ?    2.725n * V(1,2) +  614.430p : 	; -200.000m   69.470p
+ (V(1,2) < -150.000m) ?  260.400p * V(1,2) +  121.550p : 	; -150.000m   82.490p
+ (V(1,2) < -100.000m) ?  260.600p * V(1,2) +  121.580p : 	; -100.000m   95.520p
+ (V(1,2) <  -50.000m) ? -197.600p * V(1,2) +   75.760p : 	;  -50.000m   85.640p
+ (V(1,2) <    0.000 ) ? -197.600p * V(1,2) +   75.760p : 	;    0.000    75.760p
+ (V(1,2) <    5.000 ) ?    5.060p * V(1,2) +   75.760p : 	;    5.000   101.060p
+    1.000n * V(1,2) +  101.060p
.ENDS
.SUBCKT POWER_CLAMP 3    4   1   2
* Connections       Out+ Out In+ In
BPWR_CLAMP 3 4 I=
+ (V(1,2) <   -5.000 ) ?    1.000n * V(1,2) +   25.120  : 
+ (V(1,2) <   -4.800 ) ?   -6.150  * V(1,2) +   -5.630  : 	;   -4.800    23.890 
+ (V(1,2) <   -4.600 ) ?   -6.150  * V(1,2) +   -5.630  : 	;   -4.600    22.660 
+ (V(1,2) <   -4.400 ) ?   -6.150  * V(1,2) +   -5.630  : 	;   -4.400    21.430 
+ (V(1,2) <   -4.200 ) ?   -6.100  * V(1,2) +   -5.410  : 	;   -4.200    20.210 
+ (V(1,2) <   -4.000 ) ?   -6.150  * V(1,2) +   -5.620  : 	;   -4.000    18.980 
+ (V(1,2) <   -3.800 ) ?   -6.100  * V(1,2) +   -5.420  : 	;   -3.800    17.760 
+ (V(1,2) <   -3.600 ) ?   -6.150  * V(1,2) +   -5.610  : 	;   -3.600    16.530 
+ (V(1,2) <   -3.400 ) ?   -6.100  * V(1,2) +   -5.430  : 	;   -3.400    15.310 
+ (V(1,2) <   -3.200 ) ?   -6.150  * V(1,2) +   -5.600  : 	;   -3.200    14.080 
+ (V(1,2) <   -3.000 ) ?   -6.100  * V(1,2) +   -5.440  : 	;   -3.000    12.860 
+ (V(1,2) <   -2.800 ) ?   -6.100  * V(1,2) +   -5.440  : 	;   -2.800    11.640 
+ (V(1,2) <   -2.600 ) ?   -6.100  * V(1,2) +   -5.440  : 	;   -2.600    10.420 
+ (V(1,2) <   -2.400 ) ?   -6.100  * V(1,2) +   -5.440  : 	;   -2.400     9.200 
+ (V(1,2) <   -2.200 ) ?   -6.050  * V(1,2) +   -5.320  : 	;   -2.200     7.990 
+ (V(1,2) <   -2.000 ) ?   -6.050  * V(1,2) +   -5.320  : 	;   -2.000     6.780 
+ (V(1,2) <   -1.950 ) ?   -6.000  * V(1,2) +   -5.220  : 	;   -1.950     6.480 
+ (V(1,2) <   -1.900 ) ?   -6.200  * V(1,2) +   -5.610  : 	;   -1.900     6.170 
+ (V(1,2) <   -1.850 ) ?   -6.000  * V(1,2) +   -5.230  : 	;   -1.850     5.870 
+ (V(1,2) <   -1.800 ) ?   -6.000  * V(1,2) +   -5.230  : 	;   -1.800     5.570 
+ (V(1,2) <   -1.750 ) ?   -6.000  * V(1,2) +   -5.230  : 	;   -1.750     5.270 
+ (V(1,2) <   -1.700 ) ?   -6.000  * V(1,2) +   -5.230  : 	;   -1.700     4.970 
+ (V(1,2) <   -1.650 ) ?   -6.000  * V(1,2) +   -5.230  : 	;   -1.650     4.670 
+ (V(1,2) <   -1.600 ) ?   -6.000  * V(1,2) +   -5.230  : 	;   -1.600     4.370 
+ (V(1,2) <   -1.550 ) ?   -6.000  * V(1,2) +   -5.230  : 	;   -1.550     4.070 
+ (V(1,2) <   -1.500 ) ?   -6.000  * V(1,2) +   -5.230  : 	;   -1.500     3.770 
+ (V(1,2) <   -1.450 ) ?   -5.800  * V(1,2) +   -4.930  : 	;   -1.450     3.480 
+ (V(1,2) <   -1.400 ) ?   -6.000  * V(1,2) +   -5.220  : 	;   -1.400     3.180 
+ (V(1,2) <   -1.350 ) ?   -5.800  * V(1,2) +   -4.940  : 	;   -1.350     2.890 
+ (V(1,2) <   -1.300 ) ?   -6.000  * V(1,2) +   -5.210  : 	;   -1.300     2.590 
+ (V(1,2) <   -1.250 ) ?   -5.800  * V(1,2) +   -4.950  : 	;   -1.250     2.300 
+ (V(1,2) <   -1.200 ) ?   -5.800  * V(1,2) +   -4.950  : 	;   -1.200     2.010 
+ (V(1,2) <   -1.150 ) ?   -5.600  * V(1,2) +   -4.710  : 	;   -1.150     1.730 
+ (V(1,2) <   -1.100 ) ?   -5.800  * V(1,2) +   -4.940  : 	;   -1.100     1.440 
+ (V(1,2) <   -1.050 ) ?   -5.400  * V(1,2) +   -4.500  : 	;   -1.050     1.170 
+ (V(1,2) <   -1.000 ) ?   -5.490  * V(1,2) +   -4.594  : 	;   -1.000   895.500m
+ (V(1,2) < -950.000m) ?   -4.991  * V(1,2) +   -4.096  : 	; -950.000m  645.930m
+ (V(1,2) < -900.000m) ?   -4.992  * V(1,2) +   -4.096  : 	; -900.000m  396.350m
+ (V(1,2) < -850.000m) ?   -3.383  * V(1,2) +   -2.649  : 	; -850.000m  227.190m
+ (V(1,2) < -800.000m) ?   -3.383  * V(1,2) +   -2.649  : 	; -800.000m   58.030m
+ (V(1,2) < -750.000m) ? -568.000m * V(1,2) + -396.370m : 	; -750.000m   29.630m
+ (V(1,2) < -700.000m) ? -568.200m * V(1,2) + -396.520m : 	; -700.000m    1.220m
+ (V(1,2) < -650.000m) ?  -11.990m * V(1,2) +   -7.173m : 	; -650.000m  620.480u
+ (V(1,2) < -600.000m) ?  -12.056m * V(1,2) +   -7.216m : 	; -600.000m   17.660u
+ (V(1,2) < -550.000m) ? -174.000u * V(1,2) +  -86.740u : 	; -550.000m    8.960u
+ (V(1,2) < -500.000m) ? -174.153u * V(1,2) +  -86.824u : 	; -500.000m  252.340n
+ (V(1,2) < -450.000m) ?   -2.488u * V(1,2) + -991.660n : 	; -450.000m  127.940n
+ (V(1,2) < -400.000m) ?   -2.488u * V(1,2) + -991.750n : 	; -400.000m    3.530n
+ (V(1,2) < -350.000m) ?  -36.000n * V(1,2) +  -10.870n : 	; -350.000m    1.730n
+ (V(1,2) < -300.000m) ?  -35.845n * V(1,2) +  -10.816n : 	; -300.000m  -62.260p
+ (V(1,2) < -250.000m) ?  -96.400p * V(1,2) +  -91.180p : 	; -250.000m  -67.080p
+ (V(1,2) < -200.000m) ?  -96.600p * V(1,2) +  -91.230p : 	; -200.000m  -71.910p
+ (V(1,2) < -150.000m) ? -363.800p * V(1,2) + -144.670p : 	; -150.000m  -90.100p
+ (V(1,2) < -100.000m) ? -363.800p * V(1,2) + -144.670p : 	; -100.000m -108.290p
+ (V(1,2) <  -50.000m) ?  415.800p * V(1,2) +  -66.710p : 	;  -50.000m  -87.500p
+ (V(1,2) <    0.000 ) ?  416.000p * V(1,2) +  -66.700p : 	;    0.000   -66.700p
+    1.000n * V(1,2) +  -66.700p
.ENDS
.SUBCKT PULL_UP 3    4   1   2
* Connections   Out+ Out In+ In
BPULL_UP 3 4 V=
+ (V(1,2) <   -5.000 ) ?    1.000n * V(1,2) +  363.790u : 
+ (V(1,2) <   -4.500 ) ?   98.320u * V(1,2) +  855.390u : 	;   -4.500   412.950u
+ (V(1,2) <   -4.000 ) ?  129.360u * V(1,2) +  995.070u : 	;   -4.000   477.630u
+ (V(1,2) <   -3.500 ) ?  177.900u * V(1,2) +    1.189m : 	;   -3.500   566.580u
+ (V(1,2) <   -3.000 ) ?  260.100u * V(1,2) +    1.477m : 	;   -3.000   696.630u
+ (V(1,2) <   -2.500 ) ?  416.400u * V(1,2) +    1.946m : 	;   -2.500   904.830u
+ (V(1,2) <   -2.000 ) ?  770.340u * V(1,2) +    2.831m : 	;   -2.000     1.290m
+ (V(1,2) <   -1.500 ) ?    1.940m * V(1,2) +    5.170m : 	;   -1.500     2.260m
+ (V(1,2) <   -1.400 ) ?    3.900m * V(1,2) +    8.110m : 	;   -1.400     2.650m
+ (V(1,2) <   -1.300 ) ?    5.500m * V(1,2) +   10.350m : 	;   -1.300     3.200m
+ (V(1,2) <   -1.200 ) ?    8.600m * V(1,2) +   14.380m : 	;   -1.200     4.060m
+ (V(1,2) <   -1.100 ) ?   14.200m * V(1,2) +   21.100m : 	;   -1.100     5.480m
+ (V(1,2) <   -1.000 ) ?   28.500m * V(1,2) +   36.830m : 	;   -1.000     8.330m
+ (V(1,2) < -900.000m) ?   75.500m * V(1,2) +   83.830m : 	; -900.000m   15.880m
+ (V(1,2) < -800.000m) ?  238.700m * V(1,2) +  230.710m : 	; -800.000m   39.750m
+ (V(1,2) < -700.000m) ?   73.600m * V(1,2) +   98.630m : 	; -700.000m   47.110m
+ (V(1,2) < -600.000m) ?  -63.600m * V(1,2) +    2.590m : 	; -600.000m   40.750m
+ (V(1,2) < -500.000m) ?  -67.400m * V(1,2) +  310.000u : 	; -500.000m   34.010m
+ (V(1,2) < -400.000m) ?  -67.700m * V(1,2) +  160.000u : 	; -400.000m   27.240m
+ (V(1,2) < -300.000m) ?  -68.000m * V(1,2) +   40.000u : 	; -300.000m   20.440m
+ (V(1,2) < -200.000m) ?  -68.100m * V(1,2) +   10.000u : 	; -200.000m   13.630m
+ (V(1,2) < -100.000m) ?  -68.200m * V(1,2) +  -10.000u : 	; -100.000m    6.810m
+ (V(1,2) <    0.000 ) ?  -68.100m * V(1,2) +   -9.810p : 	;    0.000    -9.810p
+ (V(1,2) <  100.000m) ?  -67.100m * V(1,2) +   -9.810p : 	;  100.000m   -6.710m
+ (V(1,2) <  200.000m) ?  -65.300m * V(1,2) + -180.000u : 	;  200.000m  -13.240m
+ (V(1,2) <  300.000m) ?  -63.400m * V(1,2) + -560.000u : 	;  300.000m  -19.580m
+ (V(1,2) <  400.000m) ?  -61.500m * V(1,2) +   -1.130m : 	;  400.000m  -25.730m
+ (V(1,2) <  500.000m) ?  -59.700m * V(1,2) +   -1.850m : 	;  500.000m  -31.700m
+ (V(1,2) <  600.000m) ?  -57.800m * V(1,2) +   -2.800m : 	;  600.000m  -37.480m
+ (V(1,2) <  700.000m) ?  -56.000m * V(1,2) +   -3.880m : 	;  700.000m  -43.080m
+ (V(1,2) <  800.000m) ?  -54.100m * V(1,2) +   -5.210m : 	;  800.000m  -48.490m
+ (V(1,2) <  900.000m) ?  -52.200m * V(1,2) +   -6.730m : 	;  900.000m  -53.710m
+ (V(1,2) <    1.000 ) ?  -50.400m * V(1,2) +   -8.350m : 	;    1.000   -58.750m
+ (V(1,2) <    1.100 ) ?  -48.500m * V(1,2) +  -10.250m : 	;    1.100   -63.600m
+ (V(1,2) <    1.200 ) ?  -46.600m * V(1,2) +  -12.340m : 	;    1.200   -68.260m
+ (V(1,2) <    1.300 ) ?  -44.800m * V(1,2) +  -14.500m : 	;    1.300   -72.740m
+ (V(1,2) <    1.400 ) ?  -42.900m * V(1,2) +  -16.970m : 	;    1.400   -77.030m
+ (V(1,2) <    1.500 ) ?  -41.000m * V(1,2) +  -19.630m : 	;    1.500   -81.130m
+ (V(1,2) <    1.600 ) ?  -39.200m * V(1,2) +  -22.330m : 	;    1.600   -85.050m
+ (V(1,2) <    1.700 ) ?  -37.300m * V(1,2) +  -25.370m : 	;    1.700   -88.780m
+ (V(1,2) <    1.800 ) ?  -35.300m * V(1,2) +  -28.770m : 	;    1.800   -92.310m
+ (V(1,2) <    1.900 ) ?  -33.600m * V(1,2) +  -31.830m : 	;    1.900   -95.670m
+ (V(1,2) <    2.000 ) ?  -31.700m * V(1,2) +  -35.440m : 	;    2.000   -98.840m
+ (V(1,2) <    2.100 ) ?  -29.800m * V(1,2) +  -39.240m : 	;    2.100  -101.820m
+ (V(1,2) <    2.200 ) ?  -28.000m * V(1,2) +  -43.020m : 	;    2.200  -104.620m
+ (V(1,2) <    2.300 ) ?  -26.100m * V(1,2) +  -47.200m : 	;    2.300  -107.230m
+ (V(1,2) <    2.400 ) ?  -24.300m * V(1,2) +  -51.340m : 	;    2.400  -109.660m
+ (V(1,2) <    2.500 ) ?  -22.400m * V(1,2) +  -55.900m : 	;    2.500  -111.900m
+ (V(1,2) <    2.600 ) ?  -20.500m * V(1,2) +  -60.650m : 	;    2.600  -113.950m
+ (V(1,2) <    2.700 ) ?  -18.600m * V(1,2) +  -65.590m : 	;    2.700  -115.810m
+ (V(1,2) <    2.800 ) ?  -16.800m * V(1,2) +  -70.450m : 	;    2.800  -117.490m
+ (V(1,2) <    2.900 ) ?  -15.000m * V(1,2) +  -75.490m : 	;    2.900  -118.990m
+ (V(1,2) <    3.000 ) ?  -13.000m * V(1,2) +  -81.290m : 	;    3.000  -120.290m
+ (V(1,2) <    3.100 ) ?  -11.200m * V(1,2) +  -86.690m : 	;    3.100  -121.410m
+ (V(1,2) <    3.200 ) ?   -9.300m * V(1,2) +  -92.580m : 	;    3.200  -122.340m
+ (V(1,2) <    3.300 ) ?   -7.500m * V(1,2) +  -98.340m : 	;    3.300  -123.090m
+ (V(1,2) <    3.400 ) ?   -5.600m * V(1,2) + -104.610m : 	;    3.400  -123.650m
+ (V(1,2) <    3.500 ) ?   -3.700m * V(1,2) + -111.070m : 	;    3.500  -124.020m
+ (V(1,2) <    3.600 ) ?  -11.400m * V(1,2) +  -84.120m : 	;    3.600  -125.160m
+ (V(1,2) <    3.700 ) ?  -14.500m * V(1,2) +  -72.960m : 	;    3.700  -126.610m
+ (V(1,2) <    3.800 ) ?   -9.400m * V(1,2) +  -91.830m : 	;    3.800  -127.550m
+ (V(1,2) <    3.900 ) ?   -7.900m * V(1,2) +  -97.530m : 	;    3.900  -128.340m
+ (V(1,2) <    4.000 ) ?   -7.000m * V(1,2) + -101.040m : 	;    4.000  -129.040m
+ (V(1,2) <    4.100 ) ?   -6.400m * V(1,2) + -103.440m : 	;    4.100  -129.680m
+ (V(1,2) <    4.200 ) ?   -5.900m * V(1,2) + -105.490m : 	;    4.200  -130.270m
+ (V(1,2) <    4.300 ) ?   -5.700m * V(1,2) + -106.330m : 	;    4.300  -130.840m
+ (V(1,2) <    4.400 ) ?   -5.400m * V(1,2) + -107.620m : 	;    4.400  -131.380m
+ (V(1,2) <    4.500 ) ?   -5.200m * V(1,2) + -108.500m : 	;    4.500  -131.900m
+ (V(1,2) <    4.600 ) ?   -5.000m * V(1,2) + -109.400m : 	;    4.600  -132.400m
+ (V(1,2) <    4.700 ) ?   -4.800m * V(1,2) + -110.320m : 	;    4.700  -132.880m
+ (V(1,2) <    4.800 ) ?   -4.800m * V(1,2) + -110.320m : 	;    4.800  -133.360m
+ (V(1,2) <    4.900 ) ?   -4.600m * V(1,2) + -111.280m : 	;    4.900  -133.820m
+ (V(1,2) <    5.000 ) ?   -4.600m * V(1,2) + -111.280m : 	;    5.000  -134.280m
+ (V(1,2) <    5.100 ) ?   -4.400m * V(1,2) + -112.280m : 	;    5.100  -134.720m
+ (V(1,2) <    5.200 ) ?   -4.400m * V(1,2) + -112.280m : 	;    5.200  -135.160m
+ (V(1,2) <    5.300 ) ?   -4.300m * V(1,2) + -112.800m : 	;    5.300  -135.590m
+ (V(1,2) <    5.400 ) ?   -4.200m * V(1,2) + -113.330m : 	;    5.400  -136.010m
+ (V(1,2) <    5.500 ) ?   -4.200m * V(1,2) + -113.330m : 	;    5.500  -136.430m
+ (V(1,2) <    5.600 ) ?   -4.100m * V(1,2) + -113.880m : 	;    5.600  -136.840m
+ (V(1,2) <    5.700 ) ?   -4.000m * V(1,2) + -114.440m : 	;    5.700  -137.240m
+ (V(1,2) <    5.800 ) ?   -4.100m * V(1,2) + -113.870m : 	;    5.800  -137.650m
+ (V(1,2) <    5.900 ) ?   -6.400m * V(1,2) + -100.530m : 	;    5.900  -138.290m
+ (V(1,2) <    6.000 ) ?  -89.500m * V(1,2) +  389.760m : 	;    6.000  -147.240m
+ (V(1,2) <    6.100 ) ?  355.800m * V(1,2) +   -2.282  : 	;    6.100  -111.660m
+ (V(1,2) <    6.200 ) ? -157.100m * V(1,2) +  846.650m : 	;    6.200  -127.370m
+ (V(1,2) <    6.300 ) ?  -87.900m * V(1,2) +  417.610m : 	;    6.300  -136.160m
+ (V(1,2) <    6.400 ) ?  -23.500m * V(1,2) +   11.890m : 	;    6.400  -138.510m
+ (V(1,2) <    6.500 ) ?  -12.100m * V(1,2) +  -61.070m : 	;    6.500  -139.720m
+ (V(1,2) <    7.000 ) ?   -4.620m * V(1,2) + -109.690m : 	;    7.000  -142.030m
+ (V(1,2) <    7.500 ) ?   -3.840m * V(1,2) + -115.150m : 	;    7.500  -143.950m
+ (V(1,2) <    8.000 ) ?   -3.580m * V(1,2) + -117.100m : 	;    8.000  -145.740m
+ (V(1,2) <    8.500 ) ?   -3.480m * V(1,2) + -117.900m : 	;    8.500  -147.480m
+ (V(1,2) <    9.000 ) ?   -3.420m * V(1,2) + -118.410m : 	;    9.000  -149.190m
+ (V(1,2) <    9.500 ) ?   -3.360m * V(1,2) + -118.950m : 	;    9.500  -150.870m
+ (V(1,2) <   10.000 ) ?   -3.260m * V(1,2) + -119.900m : 	;   10.000  -152.500m
+    1.000n * V(1,2) + -152.500m
.ENDS
.SUBCKT PULL_DOWN 3    4   1   2
* Connections     Out+ Out In+ In
BPULL_DOWN 3 4 V=
+ (V(1,2) <   -5.000 ) ?    1.000n * V(1,2) +   -1.060m : 
+ (V(1,2) <   -4.500 ) ? -300.000u * V(1,2) +   -2.560m : 	;   -4.500    -1.210m
+ (V(1,2) <   -4.000 ) ? -380.000u * V(1,2) +   -2.920m : 	;   -4.000    -1.400m
+ (V(1,2) <   -3.500 ) ? -520.000u * V(1,2) +   -3.480m : 	;   -3.500    -1.660m
+ (V(1,2) <   -3.000 ) ? -780.000u * V(1,2) +   -4.390m : 	;   -3.000    -2.050m
+ (V(1,2) <   -2.500 ) ?   -1.260m * V(1,2) +   -5.830m : 	;   -2.500    -2.680m
+ (V(1,2) <   -2.000 ) ?   -2.360m * V(1,2) +   -8.580m : 	;   -2.000    -3.860m
+ (V(1,2) <   -1.500 ) ?   -6.080m * V(1,2) +  -16.020m : 	;   -1.500    -6.900m
+ (V(1,2) <   -1.400 ) ?  -12.700m * V(1,2) +  -25.950m : 	;   -1.400    -8.170m
+ (V(1,2) <   -1.300 ) ?  -18.200m * V(1,2) +  -33.650m : 	;   -1.300    -9.990m
+ (V(1,2) <   -1.200 ) ?  -28.900m * V(1,2) +  -47.560m : 	;   -1.200   -12.880m
+ (V(1,2) <   -1.100 ) ?  -50.400m * V(1,2) +  -73.360m : 	;   -1.100   -17.920m
+ (V(1,2) <   -1.000 ) ? -107.400m * V(1,2) + -136.060m : 	;   -1.000   -28.660m
+ (V(1,2) < -900.000m) ? -319.000m * V(1,2) + -347.660m : 	; -900.000m  -60.560m
+ (V(1,2) < -800.000m) ? -784.900m * V(1,2) + -766.970m : 	; -800.000m -139.050m
+ (V(1,2) < -700.000m) ?  -14.300m * V(1,2) + -150.490m : 	; -700.000m -140.480m
+ (V(1,2) < -600.000m) ?  173.900m * V(1,2) +  -18.750m : 	; -600.000m -123.090m
+ (V(1,2) < -500.000m) ?  184.400m * V(1,2) +  -12.450m : 	; -500.000m -104.650m
+ (V(1,2) < -400.000m) ?  192.200m * V(1,2) +   -8.550m : 	; -400.000m  -85.430m
+ (V(1,2) < -300.000m) ?  200.300m * V(1,2) +   -5.310m : 	; -300.000m  -65.400m
+ (V(1,2) < -200.000m) ?  208.700m * V(1,2) +   -2.790m : 	; -200.000m  -44.530m
+ (V(1,2) < -100.000m) ?  217.900m * V(1,2) + -950.000u : 	; -100.000m  -22.740m
+ (V(1,2) <    0.000 ) ?  227.400m * V(1,2) +    7.100n : 	;    0.000     7.100n
+ (V(1,2) <  100.000m) ?  224.900m * V(1,2) +    7.100n : 	;  100.000m   22.490m
+ (V(1,2) <  200.000m) ?  210.300m * V(1,2) +    1.460m : 	;  200.000m   43.520m
+ (V(1,2) <  300.000m) ?  196.300m * V(1,2) +    4.260m : 	;  300.000m   63.150m
+ (V(1,2) <  400.000m) ?  183.100m * V(1,2) +    8.220m : 	;  400.000m   81.460m
+ (V(1,2) <  500.000m) ?  170.500m * V(1,2) +   13.260m : 	;  500.000m   98.510m
+ (V(1,2) <  600.000m) ?  158.600m * V(1,2) +   19.210m : 	;  600.000m  114.370m
+ (V(1,2) <  700.000m) ?  147.000m * V(1,2) +   26.170m : 	;  700.000m  129.070m
+ (V(1,2) <  800.000m) ?  136.200m * V(1,2) +   33.730m : 	;  800.000m  142.690m
+ (V(1,2) <  900.000m) ?  125.800m * V(1,2) +   42.050m : 	;  900.000m  155.270m
+ (V(1,2) <    1.000 ) ?  115.800m * V(1,2) +   51.050m : 	;    1.000   166.850m
+ (V(1,2) <    1.100 ) ?  106.300m * V(1,2) +   60.550m : 	;    1.100   177.480m
+ (V(1,2) <    1.200 ) ?   97.300m * V(1,2) +   70.450m : 	;    1.200   187.210m
+ (V(1,2) <    1.300 ) ?   88.600m * V(1,2) +   80.890m : 	;    1.300   196.070m
+ (V(1,2) <    1.400 ) ?   80.300m * V(1,2) +   91.680m : 	;    1.400   204.100m
+ (V(1,2) <    1.500 ) ?   72.300m * V(1,2) +  102.880m : 	;    1.500   211.330m
+ (V(1,2) <    1.600 ) ?   64.700m * V(1,2) +  114.280m : 	;    1.600   217.800m
+ (V(1,2) <    1.700 ) ?   57.300m * V(1,2) +  126.120m : 	;    1.700   223.530m
+ (V(1,2) <    1.800 ) ?   49.900m * V(1,2) +  138.700m : 	;    1.800   228.520m
+ (V(1,2) <    1.900 ) ?   43.700m * V(1,2) +  149.860m : 	;    1.900   232.890m
+ (V(1,2) <    2.000 ) ?   37.200m * V(1,2) +  162.210m : 	;    2.000   236.610m
+ (V(1,2) <    2.100 ) ?   31.100m * V(1,2) +  174.410m : 	;    2.100   239.720m
+ (V(1,2) <    2.200 ) ?   25.100m * V(1,2) +  187.010m : 	;    2.200   242.230m
+ (V(1,2) <    2.300 ) ?   19.400m * V(1,2) +  199.550m : 	;    2.300   244.170m
+ (V(1,2) <    2.400 ) ?    7.000m * V(1,2) +  228.070m : 	;    2.400   244.870m
+ (V(1,2) <    2.500 ) ?    2.100m * V(1,2) +  239.830m : 	;    2.500   245.080m
+ (V(1,2) <    2.600 ) ?    1.800m * V(1,2) +  240.580m : 	;    2.600   245.260m
+ (V(1,2) <    2.700 ) ?    1.800m * V(1,2) +  240.580m : 	;    2.700   245.440m
+ (V(1,2) <    2.800 ) ?    1.800m * V(1,2) +  240.580m : 	;    2.800   245.620m
+ (V(1,2) <    2.900 ) ?    1.800m * V(1,2) +  240.580m : 	;    2.900   245.800m
+ (V(1,2) <    3.000 ) ?    1.800m * V(1,2) +  240.580m : 	;    3.000   245.980m
+ (V(1,2) <    3.100 ) ?    1.800m * V(1,2) +  240.580m : 	;    3.100   246.160m
+ (V(1,2) <    3.200 ) ?    1.800m * V(1,2) +  240.580m : 	;    3.200   246.340m
+ (V(1,2) <    3.300 ) ?    1.800m * V(1,2) +  240.580m : 	;    3.300   246.520m
+ (V(1,2) <    3.400 ) ?    1.800m * V(1,2) +  240.580m : 	;    3.400   246.700m
+ (V(1,2) <    3.500 ) ?    1.800m * V(1,2) +  240.580m : 	;    3.500   246.880m
+ (V(1,2) <    3.600 ) ?    1.800m * V(1,2) +  240.580m : 	;    3.600   247.060m
+ (V(1,2) <    3.700 ) ?    1.700m * V(1,2) +  240.940m : 	;    3.700   247.230m
+ (V(1,2) <    3.800 ) ?    1.800m * V(1,2) +  240.570m : 	;    3.800   247.410m
+ (V(1,2) <    3.900 ) ?    1.800m * V(1,2) +  240.570m : 	;    3.900   247.590m
+ (V(1,2) <    4.000 ) ?    1.800m * V(1,2) +  240.570m : 	;    4.000   247.770m
+ (V(1,2) <    4.100 ) ?    1.800m * V(1,2) +  240.570m : 	;    4.100   247.950m
+ (V(1,2) <    4.200 ) ?    1.800m * V(1,2) +  240.570m : 	;    4.200   248.130m
+ (V(1,2) <    4.300 ) ?    1.800m * V(1,2) +  240.570m : 	;    4.300   248.310m
+ (V(1,2) <    4.400 ) ?    1.800m * V(1,2) +  240.570m : 	;    4.400   248.490m
+ (V(1,2) <    4.500 ) ?    1.800m * V(1,2) +  240.570m : 	;    4.500   248.670m
+ (V(1,2) <    4.600 ) ?    1.800m * V(1,2) +  240.570m : 	;    4.600   248.850m
+ (V(1,2) <    4.700 ) ?    1.800m * V(1,2) +  240.570m : 	;    4.700   249.030m
+ (V(1,2) <    4.800 ) ?    1.800m * V(1,2) +  240.570m : 	;    4.800   249.210m
+ (V(1,2) <    4.900 ) ?    1.800m * V(1,2) +  240.570m : 	;    4.900   249.390m
+ (V(1,2) <    5.000 ) ?    1.800m * V(1,2) +  240.570m : 	;    5.000   249.570m
+ (V(1,2) <    5.100 ) ?    1.800m * V(1,2) +  240.570m : 	;    5.100   249.750m
+ (V(1,2) <    5.200 ) ?    1.800m * V(1,2) +  240.570m : 	;    5.200   249.930m
+ (V(1,2) <    5.300 ) ?    1.800m * V(1,2) +  240.570m : 	;    5.300   250.110m
+ (V(1,2) <    5.400 ) ?    1.800m * V(1,2) +  240.570m : 	;    5.400   250.290m
+ (V(1,2) <    5.500 ) ?    1.700m * V(1,2) +  241.110m : 	;    5.500   250.460m
+ (V(1,2) <    5.600 ) ?    1.800m * V(1,2) +  240.560m : 	;    5.600   250.640m
+ (V(1,2) <    5.700 ) ?    1.800m * V(1,2) +  240.560m : 	;    5.700   250.820m
+ (V(1,2) <    5.800 ) ?    1.900m * V(1,2) +  239.990m : 	;    5.800   251.010m
+ (V(1,2) <    5.900 ) ?    4.100m * V(1,2) +  227.230m : 	;    5.900   251.420m
+ (V(1,2) <    6.000 ) ?   28.000m * V(1,2) +   86.220m : 	;    6.000   254.220m
+ (V(1,2) <    6.100 ) ? -111.900m * V(1,2) +  925.620m : 	;    6.100   243.030m
+ (V(1,2) <    6.200 ) ?   63.300m * V(1,2) + -143.100m : 	;    6.200   249.360m
+ (V(1,2) <    6.300 ) ?   17.300m * V(1,2) +  142.100m : 	;    6.300   251.090m
+ (V(1,2) <    6.400 ) ?    6.300m * V(1,2) +  211.400m : 	;    6.400   251.720m
+ (V(1,2) <    6.500 ) ?    3.800m * V(1,2) +  227.400m : 	;    6.500   252.100m
+ (V(1,2) <    7.000 ) ?    2.000m * V(1,2) +  239.100m : 	;    7.000   253.100m
+ (V(1,2) <    7.500 ) ?    1.860m * V(1,2) +  240.080m : 	;    7.500   254.030m
+ (V(1,2) <    8.000 ) ?    1.800m * V(1,2) +  240.530m : 	;    8.000   254.930m
+ (V(1,2) <    8.500 ) ?    1.780m * V(1,2) +  240.690m : 	;    8.500   255.820m
+ (V(1,2) <    9.000 ) ?    1.800m * V(1,2) +  240.520m : 	;    9.000   256.720m
+ (V(1,2) <    9.500 ) ?    1.780m * V(1,2) +  240.700m : 	;    9.500   257.610m
+ (V(1,2) <   10.000 ) ?    1.760m * V(1,2) +  240.890m : 	;   10.000   258.490m
+    1.000n * V(1,2) +  258.490m
.ENDS
**********

**
** Library generated Tuesday, December 17, 2019 18:45:50
** The IBIS file was F:\Users\Nikhil\Downloads\IBIS2SPICE\82375sb.ibs
**
** Failed to open copyright.txt. Error: 2.
** Warning: Model PCEBB12211A0S2AZZZZC changed to PCEBB122
** Warning: Model PCEBB16160A0S2AZZRUC changed to PCEBB161
** Warning: Model PCEBI00000A0S2AZZNMC changed to PCEBI000
** Warning: Model PCEBT08080AXXXXZZKMB changed to PCEBT080
** Warning: Model PCEBT08081AXXXXZZKMB changed to PCEBT081
** Warning: Model PCEBB08080A0S2AZZKMB changed to PCEBB080
** Warning: Model PCEBI00000A1K3KZZNMC changed to PCEBI001
** Warning: Model PCEBO08081AXXXXZZKMB changed to PCEBO080
** Warning: Model PCEBI00000A0S2AZZVTC changed to PCEBI002
**********
*SRC=PCEBB161_Pin_37_B;PCEBB161_Pin_37_B;IBIS_BUFFER;I/O;best
*SYM=IBISO
.SUBCKT PCEBB161_Pin_37_B 100 4 300 400 500
*Connections    Input Output VCC VEE Enable
** Referenced by:
** SD16, SD17, SD18, SD19, SD20
** SD21, SD22, SD23, SD24, SD25
** SD8, SD26, SD9, SD27, SD28
** SD10, SD11, SD29, SD12, SD30
** SD13, SD31, SD14, SD15, IO16#
** EX32#, SD7, SD6, SD5, SD4
** SD3, SD2, SD1, SD0
*Model Version; best
*DEFINE {RTF}=  11.117k  ;2.70V/300.17ps
*DEFINE {RTR}=   8.454k  ;2.49V/210.50ps
* Input Control
B1 820 0 V=V(100) & V(500)
B2 830 0 V= V(500) & ~V(100)
* Up and Down Ramps
B3 300 850 I= V(830) > 1.2   ? 0 : V(300,850) / {RTR}
RB3 300 850 100MEG
B4 840 400 I= V(820) > 1.2 ? 0 : V(840,400) / {RTF}
RB4 840 400 100MEG
C1 300 850 .01P
C2 840 400 .01P
S1 220 850 0 820 SMOD
S2 840 220 0 830 SMOD
.MODEL SMOD SW RON=.1M ROFF=1E15 VT=-1.2 VH=.1
G1 8 400 2 8 1
R1 6 400 1
G2 300 8 8 3 1
R2 300 6 1
* Pull-up/Pull-down structures; best
XPULL_DOWN 2 400 8 840 PULL_DOWN
XPULL_UP 3 300 850 8 PULL_UP
* Diode Clamps
XPOWER_CLAMP 6 300 300 6 POWER_CLAMP
XGND_CLAMP 6 400 6 400 GND_CLAMP
* Package Parasitics: best
ROSNB 5 1 100
ROPKG 1 4 42.0m
COPKG 4 400 1.61pF
CCOMP 5 400 1.24pF
LOPKG 5 1 9.50nH
* Voltage Sources for measuring currents
V5 6 5 
V6 8 6 
V7 220 8 
.ENDS
.SUBCKT GND_CLAMP 3    4   1   2
* Connections     Out+ Out In+ In
BGND_CLAMP 3 4 I=
+ (V(1,2) <   -5.000 ) ?    1.000n * V(1,2) +   -9.270  : 
+ (V(1,2) <   -4.800 ) ?    2.250  * V(1,2) +    1.980  : 	;   -4.800    -8.820 
+ (V(1,2) <   -4.600 ) ?    2.250  * V(1,2) +    1.980  : 	;   -4.600    -8.370 
+ (V(1,2) <   -4.400 ) ?    2.200  * V(1,2) +    1.750  : 	;   -4.400    -7.930 
+ (V(1,2) <   -4.200 ) ?    2.250  * V(1,2) +    1.970  : 	;   -4.200    -7.480 
+ (V(1,2) <   -4.000 ) ?    2.250  * V(1,2) +    1.970  : 	;   -4.000    -7.030 
+ (V(1,2) <   -3.800 ) ?    2.250  * V(1,2) +    1.970  : 	;   -3.800    -6.580 
+ (V(1,2) <   -3.600 ) ?    2.250  * V(1,2) +    1.970  : 	;   -3.600    -6.130 